/*--------------------------------*- C++ -*----------------------------------*\
| =========                 |                                                 |
| \\      /  F ield         | OpenFOAM: The Open Source CFD Toolbox           |
|  \\    /   O peration     | Version:  2212                                  |
|   \\  /    A nd           | Website:  www.openfoam.com                      |
|    \\/     M anipulation  |                                                 |
\*---------------------------------------------------------------------------*/
FoamFile
{
    version     2.0;
    format      ascii;
    arch        "LSB;label=32;scalar=64";
    class       polyBoundaryMesh;
    location    "constant/polyMesh";
    object      boundary;
}
// * * * * * * * * * * * * * * * * * * * * * * * * * * * * * * * * * * * * * //

11
(
    top
    {
        type            patch;
        nFaces          0;
        startFace       274408;
    }
    bottom
    {
        type            wall;
        inGroups        1(wall);
        nFaces          9216;
        startFace       274408;
    }
    inlet
    {
        type            cyclic;
        inGroups        1(cyclic);
        nFaces          0;
        startFace       283624;
        matchTolerance  0.0001;
        transform       unknown;
        neighbourPatch  outlet;
    }
    outlet
    {
        type            cyclic;
        inGroups        1(cyclic);
        nFaces          0;
        startFace       283624;
        matchTolerance  0.0001;
        transform       unknown;
        neighbourPatch  inlet;
    }
    left
    {
        type            cyclic;
        inGroups        1(cyclic);
        nFaces          960;
        startFace       283624;
        matchTolerance  0.0001;
        transform       unknown;
        neighbourPatch  right;
    }
    right
    {
        type            cyclic;
        inGroups        1(cyclic);
        nFaces          960;
        startFace       284584;
        matchTolerance  0.0001;
        transform       unknown;
        neighbourPatch  left;
    }
    procBoundary0to1
    {
        type            processor;
        inGroups        1(processor);
        nFaces          968;
        startFace       285544;
        matchTolerance  0.0001;
        transform       unknown;
        myProcNo        0;
        neighbProcNo    1;
    }
    procBoundary0to1throughinlet
    {
        type            processorCyclic;
        inGroups        1(processorCyclic);
        nFaces          968;
        startFace       286512;
        matchTolerance  0.0001;
        transform       unknown;
        myProcNo        0;
        neighbProcNo    1;
        referPatch      inlet;
    }
    procBoundary0to2
    {
        type            processor;
        inGroups        1(processor);
        nFaces          9360;
        startFace       287480;
        matchTolerance  0.0001;
        transform       unknown;
        myProcNo        0;
        neighbProcNo    2;
    }
    procBoundary0to2throughright
    {
        type            processorCyclic;
        inGroups        1(processorCyclic);
        nFaces          96;
        startFace       296840;
        matchTolerance  0.0001;
        transform       unknown;
        myProcNo        0;
        neighbProcNo    2;
        referPatch      right;
    }
    procBoundary0to3throughinlet
    {
        type            processorCyclic;
        inGroups        1(processorCyclic);
        nFaces          48;
        startFace       296936;
        matchTolerance  0.0001;
        transform       unknown;
        myProcNo        0;
        neighbProcNo    3;
        referPatch      inlet;
    }
)

// ************************************************************************* //
