/*--------------------------------*- C++ -*----------------------------------*\
| =========                 |                                                 |
| \\      /  F ield         | OpenFOAM: The Open Source CFD Toolbox           |
|  \\    /   O peration     | Version:  2212                                  |
|   \\  /    A nd           | Website:  www.openfoam.com                      |
|    \\/     M anipulation  |                                                 |
\*---------------------------------------------------------------------------*/
FoamFile
{
    version     2.0;
    format      ascii;
    arch        "LSB;label=32;scalar=64";
    class       volScalarField;
    location    "0";
    object      k;
}
// * * * * * * * * * * * * * * * * * * * * * * * * * * * * * * * * * * * * * //

dimensions      [0 2 -2 0 0 0 0];

internalField   uniform 1.285;

boundaryField
{
    top
    {
        type            slip;
    }
    bottom
    {
        type            kqRWallFunction;
        value           uniform 1.285;
    }
    inlet
    {
        type            cyclic;
    }
    outlet
    {
        type            cyclic;
    }
    left
    {
        type            cyclic;
    }
    right
    {
        type            cyclic;
    }
    procBoundary0to1
    {
        type            processor;
        value           uniform 1.285;
    }
    procBoundary0to1throughinlet
    {
        type            processorCyclic;
        value           uniform 1.285;
    }
    procBoundary0to2
    {
        type            processor;
        value           uniform 1.285;
    }
    procBoundary0to2throughleft
    {
        type            processorCyclic;
        value           uniform 1.285;
    }
}


// ************************************************************************* //
