/*--------------------------------*- C++ -*----------------------------------*\
| =========                 |                                                 |
| \\      /  F ield         | OpenFOAM: The Open Source CFD Toolbox           |
|  \\    /   O peration     | Version:  2212                                  |
|   \\  /    A nd           | Website:  www.openfoam.com                      |
|    \\/     M anipulation  |                                                 |
\*---------------------------------------------------------------------------*/
FoamFile
{
    version     2.0;
    format      ascii;
    arch        "LSB;label=32;scalar=64";
    class       polyBoundaryMesh;
    location    "constant/polyMesh";
    object      boundary;
}
// * * * * * * * * * * * * * * * * * * * * * * * * * * * * * * * * * * * * * //

11
(
    top
    {
        type            patch;
        nFaces          0;
        startFace       274408;
    }
    bottom
    {
        type            wall;
        inGroups        1(wall);
        nFaces          9216;
        startFace       274408;
    }
    inlet
    {
        type            cyclic;
        inGroups        1(cyclic);
        nFaces          0;
        startFace       283624;
        matchTolerance  0.0001;
        transform       unknown;
        neighbourPatch  outlet;
    }
    outlet
    {
        type            cyclic;
        inGroups        1(cyclic);
        nFaces          0;
        startFace       283624;
        matchTolerance  0.0001;
        transform       unknown;
        neighbourPatch  inlet;
    }
    left
    {
        type            cyclic;
        inGroups        1(cyclic);
        nFaces          960;
        startFace       283624;
        matchTolerance  0.0001;
        transform       unknown;
        neighbourPatch  right;
    }
    right
    {
        type            cyclic;
        inGroups        1(cyclic);
        nFaces          960;
        startFace       284584;
        matchTolerance  0.0001;
        transform       unknown;
        neighbourPatch  left;
    }
    procBoundary1to0
    {
        type            processor;
        inGroups        1(processor);
        nFaces          968;
        startFace       285544;
        matchTolerance  0.0001;
        transform       unknown;
        myProcNo        1;
        neighbProcNo    0;
    }
    procBoundary1to0throughoutlet
    {
        type            processorCyclic;
        inGroups        1(processorCyclic);
        nFaces          968;
        startFace       286512;
        matchTolerance  0.0001;
        transform       unknown;
        myProcNo        1;
        neighbProcNo    0;
        referPatch      outlet;
    }
    procBoundary1to2
    {
        type            processor;
        inGroups        1(processor);
        nFaces          48;
        startFace       287480;
        matchTolerance  0.0001;
        transform       unknown;
        myProcNo        1;
        neighbProcNo    2;
    }
    procBoundary1to3
    {
        type            processor;
        inGroups        1(processor);
        nFaces          9360;
        startFace       287528;
        matchTolerance  0.0001;
        transform       unknown;
        myProcNo        1;
        neighbProcNo    3;
    }
    procBoundary1to3throughright
    {
        type            processorCyclic;
        inGroups        1(processorCyclic);
        nFaces          96;
        startFace       296888;
        matchTolerance  0.0001;
        transform       unknown;
        myProcNo        1;
        neighbProcNo    3;
        referPatch      right;
    }
)

// ************************************************************************* //
