/*--------------------------------*- C++ -*----------------------------------*\
| =========                 |                                                 |
| \\      /  F ield         | OpenFOAM: The Open Source CFD Toolbox           |
|  \\    /   O peration     | Version:  2212                                  |
|   \\  /    A nd           | Website:  www.openfoam.com                      |
|    \\/     M anipulation  |                                                 |
\*---------------------------------------------------------------------------*/
FoamFile
{
    version     2.0;
    format      ascii;
    arch        "LSB;label=32;scalar=64";
    class       polyBoundaryMesh;
    location    "constant/polyMesh";
    object      boundary;
}
// * * * * * * * * * * * * * * * * * * * * * * * * * * * * * * * * * * * * * //

10
(
    top
    {
        type            patch;
        nFaces          4608;
        startFace       419472;
    }
    bottom
    {
        type            wall;
        inGroups        1(wall);
        nFaces          4608;
        startFace       424080;
    }
    inlet
    {
        type            cyclic;
        inGroups        1(cyclic);
        nFaces          0;
        startFace       428688;
        matchTolerance  0.0001;
        transform       unknown;
        neighbourPatch  outlet;
    }
    outlet
    {
        type            cyclic;
        inGroups        1(cyclic);
        nFaces          0;
        startFace       428688;
        matchTolerance  0.0001;
        transform       unknown;
        neighbourPatch  inlet;
    }
    left
    {
        type            cyclic;
        inGroups        1(cyclic);
        nFaces          0;
        startFace       428688;
        matchTolerance  0.0001;
        transform       unknown;
        neighbourPatch  right;
    }
    right
    {
        type            cyclic;
        inGroups        1(cyclic);
        nFaces          0;
        startFace       428688;
        matchTolerance  0.0001;
        transform       unknown;
        neighbourPatch  left;
    }
    procBoundary0to1
    {
        type            processor;
        inGroups        1(processor);
        nFaces          1488;
        startFace       428688;
        matchTolerance  0.0001;
        transform       unknown;
        myProcNo        0;
        neighbProcNo    1;
    }
    procBoundary0to1throughinlet
    {
        type            processorCyclic;
        inGroups        1(processorCyclic);
        nFaces          1488;
        startFace       430176;
        matchTolerance  0.0001;
        transform       unknown;
        myProcNo        0;
        neighbProcNo    1;
        referPatch      inlet;
    }
    procBoundary0to2
    {
        type            processor;
        inGroups        1(processor);
        nFaces          2976;
        startFace       431664;
        matchTolerance  0.0001;
        transform       unknown;
        myProcNo        0;
        neighbProcNo    2;
    }
    procBoundary0to2throughleft
    {
        type            processorCyclic;
        inGroups        1(processorCyclic);
        nFaces          2976;
        startFace       434640;
        matchTolerance  0.0001;
        transform       unknown;
        myProcNo        0;
        neighbProcNo    2;
        referPatch      left;
    }
)

// ************************************************************************* //
