/*--------------------------------*- C++ -*----------------------------------*\
| =========                 |                                                 |
| \\      /  F ield         | OpenFOAM: The Open Source CFD Toolbox           |
|  \\    /   O peration     | Version:  2212                                  |
|   \\  /    A nd           | Website:  www.openfoam.com                      |
|    \\/     M anipulation  |                                                 |
\*---------------------------------------------------------------------------*/
FoamFile
{
    version     2.0;
    format      ascii;
    arch        "LSB;label=32;scalar=64";
    class       volScalarField;
    location    "0";
    object      omega;
}
// * * * * * * * * * * * * * * * * * * * * * * * * * * * * * * * * * * * * * //

dimensions      [0 0 -1 0 0 0 0];

internalField   uniform 0.077821;

boundaryField
{
    top
    {
        type            slip;
    }
    bottom
    {
        type            atmOmegaWallFunction;
        z0              constant 0.028;
        Cmu             0.03;
        kappa           0.4;
        value           uniform 0.077821;
    }
    inlet
    {
        type            cyclic;
    }
    outlet
    {
        type            cyclic;
    }
    left
    {
        type            cyclic;
    }
    right
    {
        type            cyclic;
    }
    procBoundary1to0
    {
        type            processor;
        value           uniform 0.077821;
    }
    procBoundary1to0throughoutlet
    {
        type            processorCyclic;
        value           uniform 0.077821;
    }
    procBoundary1to3
    {
        type            processor;
        value           uniform 0.077821;
    }
    procBoundary1to3throughleft
    {
        type            processorCyclic;
        value           uniform 0.077821;
    }
}


// ************************************************************************* //
