/*--------------------------------*- C++ -*----------------------------------*\
| =========                 |                                                 |
| \\      /  F ield         | OpenFOAM: The Open Source CFD Toolbox           |
|  \\    /   O peration     | Version:  2212                                  |
|   \\  /    A nd           | Website:  www.openfoam.com                      |
|    \\/     M anipulation  |                                                 |
\*---------------------------------------------------------------------------*/
FoamFile
{
    version     2.0;
    format      ascii;
    arch        "LSB;label=32;scalar=64";
    class       polyBoundaryMesh;
    location    "constant/polyMesh";
    object      boundary;
}
// * * * * * * * * * * * * * * * * * * * * * * * * * * * * * * * * * * * * * //

14
(
    top
    {
        type            patch;
        nFaces          0;
        startFace       274384;
    }
    bottom
    {
        type            wall;
        inGroups        1(wall);
        nFaces          0;
        startFace       274384;
    }
    inlet
    {
        type            cyclic;
        inGroups        1(cyclic);
        nFaces          0;
        startFace       274384;
        matchTolerance  0.0001;
        transform       unknown;
        neighbourPatch  outlet;
    }
    outlet
    {
        type            cyclic;
        inGroups        1(cyclic);
        nFaces          0;
        startFace       274384;
        matchTolerance  0.0001;
        transform       unknown;
        neighbourPatch  inlet;
    }
    left
    {
        type            cyclic;
        inGroups        1(cyclic);
        nFaces          864;
        startFace       274384;
        matchTolerance  0.0001;
        transform       unknown;
        neighbourPatch  right;
    }
    right
    {
        type            cyclic;
        inGroups        1(cyclic);
        nFaces          864;
        startFace       275248;
        matchTolerance  0.0001;
        transform       unknown;
        neighbourPatch  left;
    }
    procBoundary2to0
    {
        type            processor;
        inGroups        1(processor);
        nFaces          9360;
        startFace       276112;
        matchTolerance  0.0001;
        transform       unknown;
        myProcNo        2;
        neighbProcNo    0;
    }
    procBoundary2to0throughleft
    {
        type            processorCyclic;
        inGroups        1(processorCyclic);
        nFaces          96;
        startFace       285472;
        matchTolerance  0.0001;
        transform       unknown;
        myProcNo        2;
        neighbProcNo    0;
        referPatch      left;
    }
    procBoundary2to1
    {
        type            processor;
        inGroups        1(processor);
        nFaces          48;
        startFace       285568;
        matchTolerance  0.0001;
        transform       unknown;
        myProcNo        2;
        neighbProcNo    1;
    }
    procBoundary2to3
    {
        type            processor;
        inGroups        1(processor);
        nFaces          944;
        startFace       285616;
        matchTolerance  0.0001;
        transform       unknown;
        myProcNo        2;
        neighbProcNo    3;
    }
    procBoundary2to3throughinlet
    {
        type            processorCyclic;
        inGroups        1(processorCyclic);
        nFaces          944;
        startFace       286560;
        matchTolerance  0.0001;
        transform       unknown;
        myProcNo        2;
        neighbProcNo    3;
        referPatch      inlet;
    }
    procBoundary2to4
    {
        type            processor;
        inGroups        1(processor);
        nFaces          9360;
        startFace       287504;
        matchTolerance  0.0001;
        transform       unknown;
        myProcNo        2;
        neighbProcNo    4;
    }
    procBoundary2to4throughright
    {
        type            processorCyclic;
        inGroups        1(processorCyclic);
        nFaces          96;
        startFace       296864;
        matchTolerance  0.0001;
        transform       unknown;
        myProcNo        2;
        neighbProcNo    4;
        referPatch      right;
    }
    procBoundary2to5throughinlet
    {
        type            processorCyclic;
        inGroups        1(processorCyclic);
        nFaces          48;
        startFace       296960;
        matchTolerance  0.0001;
        transform       unknown;
        myProcNo        2;
        neighbProcNo    5;
        referPatch      inlet;
    }
)

// ************************************************************************* //
