/*--------------------------------*- C++ -*----------------------------------*\
| =========                 |                                                 |
| \\      /  F ield         | OpenFOAM: The Open Source CFD Toolbox           |
|  \\    /   O peration     | Version:  v2212                                 |
|   \\  /    A nd           | Website:  www.openfoam.com                      |
|    \\/     M anipulation  |                                                 |
\*---------------------------------------------------------------------------*/
FoamFile
{
    version     2.0;
    format      ascii;
    class       dictionary;
    object      controlDict;
}
// * * * * * * * * * * * * * * * * * * * * * * * * * * * * * * * * * * * * * //

// Make sure all utilities know specialised models
libs (atmosphericModels);

application     buoyantBoussinesqPimpleFoam;

startFrom       startTime;

startTime       0;

stopAt          endTime;

endTime         1000;

deltaT          1;

writeControl    timeStep;

writeInterval   200;

purgeWrite      0;

writeFormat     ascii;

writePrecision  16;

writeCompression off;

timeFormat      general;

timePrecision   6;

runTimeModifiable false;

adjustTimeStep  no;

maxCo           0.5;

functions
{
    ObukhovLength1
    {
        // Mandatory entries
        type            ObukhovLength;
        libs            (fieldFunctionObjects);

        // Optional entries
        U               U;
        result1         ObukhovLength;
        result2         Ustar;
        rhoRef          1.0;
        kappa           0.4;
        beta            3e-3;

        // Optional (inherited) entries
        writeControl    writeTime;
    }
    
    fieldAverage1
    {
        type            fieldAverage;
        libs            (fieldFunctionObjects);
        writeControl    writeTime;

        fields
        (
            U
            {
                mean        on;
                prime2Mean  off;
                base        time;
            }

            ObukhovLength
            {
                mean        on;
                prime2Mean  off;
                base        time;
            }

            Ustar
            {
                mean        on;
                prime2Mean  off;
                base        time;
            }
        );
    }
    
    scalar1
    {
	type            scalarTransport;
	functionObjectLibs ("libsolverFunctionObjects.so");
	enabled true;
	writeControl writeTime; // write scalar field results
	
	field s; //name of scalar field
	nCorr 1; //number of corrector loop
	D 0.1; //difussion coefficient
//    schemesField U;  // Name of field to use when looking up schemes from fvSchemes

	log yes;
     }


    #includeFunc "turbulenceFields"
    #includeFunc "sampleU"
    #includeFunc "sampleScalars"
    #includeFunc "sampleR"
}


// ************************************************************************* //
