/*--------------------------------*- C++ -*----------------------------------*\
| =========                 |                                                 |
| \\      /  F ield         | OpenFOAM: The Open Source CFD Toolbox           |
|  \\    /   O peration     | Version:  2212                                  |
|   \\  /    A nd           | Website:  www.openfoam.com                      |
|    \\/     M anipulation  |                                                 |
\*---------------------------------------------------------------------------*/
FoamFile
{
    version     2.0;
    format      ascii;
    arch        "LSB;label=32;scalar=64";
    class       polyBoundaryMesh;
    location    "constant/polyMesh";
    object      boundary;
}
// * * * * * * * * * * * * * * * * * * * * * * * * * * * * * * * * * * * * * //

14
(
    top
    {
        type            patch;
        nFaces          0;
        startFace       274384;
    }
    bottom
    {
        type            wall;
        inGroups        1(wall);
        nFaces          0;
        startFace       274384;
    }
    inlet
    {
        type            cyclic;
        inGroups        1(cyclic);
        nFaces          0;
        startFace       274384;
        matchTolerance  0.0001;
        transform       unknown;
        neighbourPatch  outlet;
    }
    outlet
    {
        type            cyclic;
        inGroups        1(cyclic);
        nFaces          0;
        startFace       274384;
        matchTolerance  0.0001;
        transform       unknown;
        neighbourPatch  inlet;
    }
    left
    {
        type            cyclic;
        inGroups        1(cyclic);
        nFaces          864;
        startFace       274384;
        matchTolerance  0.0001;
        transform       unknown;
        neighbourPatch  right;
    }
    right
    {
        type            cyclic;
        inGroups        1(cyclic);
        nFaces          864;
        startFace       275248;
        matchTolerance  0.0001;
        transform       unknown;
        neighbourPatch  left;
    }
    procBoundary3to0throughoutlet
    {
        type            processorCyclic;
        inGroups        1(processorCyclic);
        nFaces          48;
        startFace       276112;
        matchTolerance  0.0001;
        transform       unknown;
        myProcNo        3;
        neighbProcNo    0;
        referPatch      outlet;
    }
    procBoundary3to1
    {
        type            processor;
        inGroups        1(processor);
        nFaces          9360;
        startFace       276160;
        matchTolerance  0.0001;
        transform       unknown;
        myProcNo        3;
        neighbProcNo    1;
    }
    procBoundary3to1throughleft
    {
        type            processorCyclic;
        inGroups        1(processorCyclic);
        nFaces          96;
        startFace       285520;
        matchTolerance  0.0001;
        transform       unknown;
        myProcNo        3;
        neighbProcNo    1;
        referPatch      left;
    }
    procBoundary3to2
    {
        type            processor;
        inGroups        1(processor);
        nFaces          944;
        startFace       285616;
        matchTolerance  0.0001;
        transform       unknown;
        myProcNo        3;
        neighbProcNo    2;
    }
    procBoundary3to2throughoutlet
    {
        type            processorCyclic;
        inGroups        1(processorCyclic);
        nFaces          944;
        startFace       286560;
        matchTolerance  0.0001;
        transform       unknown;
        myProcNo        3;
        neighbProcNo    2;
        referPatch      outlet;
    }
    procBoundary3to4
    {
        type            processor;
        inGroups        1(processor);
        nFaces          48;
        startFace       287504;
        matchTolerance  0.0001;
        transform       unknown;
        myProcNo        3;
        neighbProcNo    4;
    }
    procBoundary3to5
    {
        type            processor;
        inGroups        1(processor);
        nFaces          9360;
        startFace       287552;
        matchTolerance  0.0001;
        transform       unknown;
        myProcNo        3;
        neighbProcNo    5;
    }
    procBoundary3to5throughright
    {
        type            processorCyclic;
        inGroups        1(processorCyclic);
        nFaces          96;
        startFace       296912;
        matchTolerance  0.0001;
        transform       unknown;
        myProcNo        3;
        neighbProcNo    5;
        referPatch      right;
    }
)

// ************************************************************************* //
